examples/PSSE/Example1_No_Fault.log

PSS(R)E PROGRAM APPLICATION GUIDE EXAMPLE
BASE CASE INCLUDING SEQUENCE DATA

The Saved Case in file C:\Users\harwoodh\LocalDocuments\LMWG_CMLD_Example\Example1.cnv was saved on MON, OCT 13 2025  17:12

The following option settings are changed to the settings contained in the Saved Case File:

** [OPF] APPLY FUEL COST OBJECTIVE option setting set to YES

** [OPF] APPLY ADJUSTABLE BRANCH REACTANCE OBJECTIVE option setting set to YES

** [OPF] CONSTRAIN INTERFACE FLOWS option setting set to YES

** [OPF] AUTOMATIC SCALING option setting set to YES

** [OPF] DUAL VARIABLE CONVERGENCE CRITERIA option setting set to YES

** [OPF] NUMBER OF BAD ITERATIONS WHEN MU>-2 option setting set to 10

** [OPF] NUMBER OF BAD ITERATIONS WHEN MU<=-2 option setting set to 20

** [OPF] PRODUCE AN OPF LOG FILE option setting set to YES

** [OPF] ADD SOLUTION DETAILS TO OPF LOG FILE option setting set to YES

The Snapshot at TIME = 0.0 in file C:\Users\harwoodh\LocalDocuments\LMWG_CMLD_Example\Example1.snp was saved on MON, OCT 13 2025  17:41

NUMBER OF ELEMENTS RESTORED:
   CONS  STATES    VARS   ICONS  CHANNELS
    858     208     878     255       0

Case title line 1 changed from "PSS(R)E PROGRAM APPLICATION GUIDE EXAMPLE"
                            to "EXAMPLE1.CNV"

Case title line 2 changed from "BASE CASE INCLUDING SEQUENCE DATA"
                            to "NO_FAULT"

There are no Plot Channels for deletion

4 Output channels have been added


Next available addresses are:
  CHANNEL    VAR    ICON
       5     879     256

4 Output channels have been added


Next available addresses are:
  CHANNEL    VAR    ICON
       9     883     260

5 Output channels have been added


Next available addresses are:
  CHANNEL    VAR    ICON
      14     888     261

23 diagonal and 41 off-diagonal elements

Models have removed constant admittance load and/or machines--REFACTORIZING

23 diagonal and 41 off-diagonal elements

    PTI INTERACTIVE POWER SYSTEM SIMULATOR--PSS(R)E     MON, OCT 13 2025  17:56
EXAMPLE1.CNV
NO_FAULT

INITIAL CONDITION LOAD FLOW USED 1 ITERATIONS

----------------------------- MACHINE INITIAL CONDITIONS -----------------------------
  BUS#-SCT X-- NAME --X BASKV ID  ETERM   EFD    POWER    VARS   P.F.  ANGLE     ID      IQ
   101     NUC-A       21.600 1  1.0200 1.9983  750.00   47.38 0.9980  64.87   0.6469   0.5016
   102     NUC-B       21.600 1  1.0200 1.9983  750.00   47.38 0.9980  64.87   0.6469   0.5016
   206     URBGEN      18.000 1  1.0400 2.4021  800.00  493.17 0.8513  24.87   0.7785   0.4589
   211     HYDRO_G     20.000 1  1.0207 1.2916  600.00 -100.00 0.9864  46.18   0.3324   0.7518
  3011     MINE_G      13.800 1  1.0400 1.3483  255.10   46.38 0.9839  17.11   0.1148   0.2213
  3018     CATDOG_G    13.800 1  1.0487 2.9821  100.00   80.00 0.7809  21.58   0.8467   0.4070

INITIAL CONDITIONS CHECK O.K.

Channel output file is "C:\Users\harwoodh\LocalDocuments\LMWG_CMLD_Example\Example1_No_Fault.out"

Channel output file is "C:\Users\harwoodh\LocalDocuments\LMWG_CMLD_Example\Example1_No_Fault.out"

   TIME X- VALUE --X X--------- IDENTIFIER ---------X X- VALUE --X X--------- IDENTIFIER ---------X
-0.0167   0.0000     FREQ    151 [NUCPANT     500.00]   0.0000     FREQ    152 [MID500      500.00]
    3     0.0000     FREQ    153 [MID230      230.00]   0.0000     FREQ    154 [DOWNTN      230.00]
    5     1.0164     VOLT    151 [NUCPANT     500.00]   1.0358     VOLT    152 [MID500      500.00]
    7     1.0148     VOLT    153 [MID230      230.00]  0.97464     VOLT    154 [DOWNTN      230.00]
    9     1512.1     PMECH AREA    1 [FLAPCO      ]     1500.0     PELEC AREA    1 [FLAPCO      ]
   11    3.66211E-04 PACCL AREA    1 [FLAPCO      ]     200.00     PLOAD AREA    1 [FLAPCO      ]
   13     1300.0     PE-PL AREA    1 [FLAPCO      ]

 1.0000 -3.73814E-07 -6.99568E-07 -7.72823E-07 -9.93208E-07   1.0164       1.0358
    7     1.0148      0.97463       1512.1       1500.0     -1.50146E-02   200.00
   13     1300.0
Dialogue input from file C:\Users\harwoodh\LocalDocuments\LMWG_CMLD_Example\No_Fault.idv

ACTIVITY? : BAT_TEXT 'FLAT RUN SIMULATION'

ACTIVITY? : 
Response file operation terminated for file C:\Users\harwoodh\LocalDocuments\LMWG_CMLD_Example\No_Fault.idv

ACTIVITY? : 
Channel output file is "C:\Users\harwoodh\LocalDocuments\LMWG_CMLD_Example\Example1_No_Fault.out"
  1  0.14        154     [DOWNTN      230.00]     0.9570E-05     0.9740E-05

   TIME X- VALUE --X X--------- IDENTIFIER ---------X X- VALUE --X X--------- IDENTIFIER ---------X
 1.0000 -3.73814E-07 FREQ    151 [NUCPANT     500.00] -6.99568E-07 FREQ    152 [MID500      500.00]
    3   -7.72823E-07 FREQ    153 [MID230      230.00] -9.93208E-07 FREQ    154 [DOWNTN      230.00]
    5     1.0164     VOLT    151 [NUCPANT     500.00]   1.0358     VOLT    152 [MID500      500.00]
    7     1.0148     VOLT    153 [MID230      230.00]  0.97464     VOLT    154 [DOWNTN      230.00]
    9     1512.1     PMECH AREA    1 [FLAPCO      ]     1500.0     PELEC AREA    1 [FLAPCO      ]
   11   -5.73730E-03 PACCL AREA    1 [FLAPCO      ]     200.00     PLOAD AREA    1 [FLAPCO      ]
   13     1300.0     PE-PL AREA    1 [FLAPCO      ]
  1  0.89E-01    154     [DOWNTN      230.00]    -0.4249E-05     0.7858E-05
  1  0.72E-01    205     [SUB230      230.00]     0.9096E-06     0.7191E-05
  1  0.12        205     [SUB230      230.00]     0.8643E-05     0.8598E-05
  1  0.63E-01    154     [DOWNTN      230.00]     0.5536E-05    -0.2994E-05
  1  0.89E-01    154     [DOWNTN      230.00]     0.6812E-05    -0.5758E-05
  1  0.10        154     [DOWNTN      230.00]    -0.6236E-05    -0.7385E-05
  1  0.17        205     [SUB230      230.00]    -0.1145E-04    -0.1259E-04
  1  0.50E-01    203     [EAST230     230.00]    -0.4836E-05    -0.1272E-05
  1  0.11        154     [DOWNTN      230.00]    -0.1086E-04    -0.2409E-05
  1  0.48E-01    205     [SUB230      230.00]    -0.1378E-05     0.4632E-05
  1  0.11        154     [DOWNTN      230.00]     0.1990E-06     0.1059E-04
  1  0.11        205     [SUB230      230.00]     0.9687E-05     0.5092E-05
  1  0.88E-01    203     [EAST230     230.00]     0.6885E-05     0.5476E-05
  1  0.90E-01    154     [DOWNTN      230.00]     0.6712E-05     0.5992E-05
  1  0.46E-01    154     [DOWNTN      230.00]     0.7489E-06    -0.4569E-05
  1  0.11        154     [DOWNTN      230.00]     0.6349E-06    -0.1088E-04
  1  0.11        205     [SUB230      230.00]    -0.8921E-05    -0.5957E-05
  1  0.10        203     [EAST230     230.00]    -0.8381E-05    -0.6255E-05
  1  0.33E-01    154     [DOWNTN      230.00]    -0.3218E-05    -0.7055E-06
  1  0.92E-01    205     [SUB230      230.00]    -0.8309E-05     0.3898E-05
  1  0.10        205     [SUB230      230.00]     0.9104E-06     0.9892E-05
  1  0.11        154     [DOWNTN      230.00]     0.1059E-04     0.3310E-05
  1  0.14        205     [SUB230      230.00]     0.1052E-04     0.9743E-05
  1  0.13E-01    206     [URBGEN      18.000]    -0.5540E-06     0.1122E-05
  1  0.51E-01    205     [SUB230      230.00]     0.2951E-05    -0.4116E-05
  1  0.11        154     [DOWNTN      230.00]     0.7200E-06    -0.1128E-04
  1  0.10        154     [DOWNTN      230.00]    -0.9213E-05    -0.4354E-05
  1  0.14        205     [SUB230      230.00]    -0.1108E-04    -0.9095E-05
  1  0.15E-01    154     [DOWNTN      230.00]    -0.6522E-06     0.1300E-05
  1  0.10        205     [SUB230      230.00]    -0.6265E-05     0.7982E-05
  1  0.85E-01    205     [SUB230      230.00]     0.6069E-05     0.5984E-05
  1  0.19        154     [DOWNTN      230.00]     0.1139E-04     0.1476E-04
  1  0.17E-01    154     [DOWNTN      230.00]     0.3364E-06    -0.1627E-05
  1  0.10        205     [SUB230      230.00]     0.1009E-04    -0.1464E-05
  1  0.72E-01    205     [SUB230      230.00]     0.1753E-05    -0.7023E-05
  1  0.11        154     [DOWNTN      230.00]    -0.9628E-05    -0.6078E-05
  1  0.16        205     [SUB230      230.00]    -0.1150E-04    -0.1126E-04
  1  0.23E-01    203     [EAST230     230.00]    -0.2184E-05    -0.7974E-06
  1  0.10        205     [SUB230      230.00]    -0.9958E-05     0.1041E-05
  1  0.86E-01    205     [SUB230      230.00]     0.5921E-06     0.8568E-05
  1  0.15        154     [DOWNTN      230.00]     0.8616E-05     0.1177E-04
  1  0.76E-01    205     [SUB230      230.00]     0.6660E-05     0.3651E-05
  1  0.14        154     [DOWNTN      230.00]     0.1109E-04     0.8855E-05
  1  0.23E-01    205     [SUB230      230.00]    -0.1457E-05    -0.1728E-05
  1  0.10        205     [SUB230      230.00]     0.2034E-05    -0.1022E-04
  1  0.77E-01    154     [DOWNTN      230.00]    -0.4382E-05    -0.6374E-05
  1  0.18        154     [DOWNTN      230.00]    -0.1119E-04    -0.1354E-04
  1  0.52E-01    154     [DOWNTN      230.00]    -0.1553E-05     0.4926E-05
  1  0.16        205     [SUB230      230.00]    -0.1082E-04     0.1176E-04
  1  0.11        205     [SUB230      230.00]     0.1014E-04     0.2736E-05
  1  0.22        154     [DOWNTN      230.00]     0.1493E-04     0.1558E-04
  1  0.23E-01    206     [URBGEN      18.000]    -0.1021E-05     0.2099E-05
  1  0.81E-01    205     [SUB230      230.00]     0.7771E-05     0.2117E-05
  1  0.70E-01    154     [DOWNTN      230.00]     0.6859E-05    -0.1576E-05
  1  0.81E-01    205     [SUB230      230.00]     0.2043E-06    -0.8076E-05
  1  0.14        205     [SUB230      230.00]    -0.8379E-05    -0.1140E-04
  1  0.11        154     [DOWNTN      230.00]    -0.1075E-04    -0.2492E-05
  1  0.44E-01    203     [EAST230     230.00]    -0.4441E-05     0.3651E-07
  1  0.11        205     [SUB230      230.00]    -0.8485E-05     0.6642E-05
  1  0.11        205     [SUB230      230.00]     0.9957E-05     0.5162E-05
  1  0.20        154     [DOWNTN      230.00]     0.1187E-04     0.1643E-04
  1  0.16E-01    206     [URBGEN      18.000]    -0.3883E-06     0.1582E-05
  1  0.10        205     [SUB230      230.00]     0.9366E-05     0.1827E-05
  1  0.65E-01    205     [SUB230      230.00]     0.4544E-05    -0.4711E-05
  1  0.12        205     [SUB230      230.00]    -0.2576E-05    -0.1144E-04
  1  0.12        154     [DOWNTN      230.00]    -0.1164E-04    -0.1512E-05
  1  0.87E-01    203     [EAST230     230.00]    -0.7913E-05    -0.3593E-05
  1  0.67E-01    154     [DOWNTN      230.00]    -0.6374E-05    -0.2158E-05
  1  0.42E-01    154     [DOWNTN      230.00]    -0.2725E-05     0.3164E-05
  1  0.16        205     [SUB230      230.00]    -0.3375E-06     0.1593E-04
  1  0.12        154     [DOWNTN      230.00]     0.1216E-04     0.9216E-07
  1  0.11        154     [DOWNTN      230.00]     0.8771E-05     0.7372E-05
  1  0.25E-01    206     [URBGEN      18.000]     0.1412E-06     0.2530E-05
  1  0.33E-01    205     [SUB230      230.00]     0.3227E-05    -0.5425E-06
  1  0.86E-01    205     [SUB230      230.00]     0.5561E-05    -0.6565E-05
  1  0.87E-01    205     [SUB230      230.00]    -0.4599E-05    -0.7417E-05
  1  0.11        154     [DOWNTN      230.00]    -0.9832E-05    -0.5254E-05
  1  0.49E-01    203     [EAST230     230.00]    -0.4899E-05     0.5028E-06
  1  0.11        205     [SUB230      230.00]    -0.1029E-04     0.4009E-05
  1  0.91E-01    205     [SUB230      230.00]     0.5304E-05     0.7455E-05
  1  0.14        154     [DOWNTN      230.00]     0.1026E-04     0.9339E-05
  1  0.82E-01    205     [SUB230      230.00]     0.6308E-05     0.5285E-05
  1  0.89E-01    205     [SUB230      230.00]     0.6457E-05     0.6150E-05
  1  0.58E-01    154     [DOWNTN      230.00]     0.5832E-05    -0.3670E-06
  1  0.58E-01    154     [DOWNTN      230.00]     0.3713E-05    -0.4431E-05
  1  0.11        154     [DOWNTN      230.00]    -0.2761E-05    -0.1103E-04
  1  0.12        154     [DOWNTN      230.00]    -0.1110E-04    -0.3873E-05
  1  0.80E-01    203     [EAST230     230.00]    -0.7255E-05    -0.3313E-05
  1  0.62E-01    205     [SUB230      230.00]    -0.5878E-05    -0.2073E-05
  1  0.46E-01    154     [DOWNTN      230.00]    -0.3180E-05     0.3336E-05
  1  0.15        205     [SUB230      230.00]    -0.1712E-05     0.1513E-04
  1  0.12        154     [DOWNTN      230.00]     0.1177E-04     0.2199E-05
  1  0.10        154     [DOWNTN      230.00]     0.8556E-05     0.5719E-05
  1  0.15E-01   3011     [MINE_G      13.800]     0.5428E-06     0.1353E-05
  1  0.57E-01    205     [SUB230      230.00]     0.3381E-05    -0.4547E-05
  1  0.91E-01    154     [DOWNTN      230.00]     0.1250E-06    -0.9069E-05
  1  0.10        205     [SUB230      230.00]    -0.9283E-05    -0.2296E-05
  1  0.13        154     [DOWNTN      230.00]    -0.1106E-04    -0.6628E-05
  1  0.25E-01    205     [SUB230      230.00]     0.2047E-05     0.1511E-05
  1  0.10        205     [SUB230      230.00]    -0.2459E-06     0.1019E-04
  1  0.80E-01    154     [DOWNTN      230.00]     0.3572E-05     0.7143E-05
  1  0.15        205     [SUB230      230.00]     0.8445E-05     0.1180E-04
  1  0.51E-01    154     [DOWNTN      230.00]     0.5140E-05     0.1849E-06
  1  0.84E-01    154     [DOWNTN      230.00]     0.8411E-05     0.3767E-07
  1  0.45E-01    205     [SUB230      230.00]    -0.6514E-06    -0.4405E-05
  1  0.14        154     [DOWNTN      230.00]    -0.6691E-05    -0.1241E-04
  1  0.92E-01    205     [SUB230      230.00]    -0.7168E-05    -0.5730E-05
  1  0.66E-01    203     [EAST230     230.00]    -0.6487E-05    -0.1435E-05
  1  0.87E-01    154     [DOWNTN      230.00]    -0.8732E-05    -0.4358E-06
  1  0.58E-01    203     [EAST230     230.00]     0.1068E-05     0.5681E-05
  1  0.15        205     [SUB230      230.00]     0.4726E-05     0.1406E-04
  1  0.92E-01    205     [SUB230      230.00]     0.7806E-05     0.4795E-05
  1  0.75E-01    205     [SUB230      230.00]     0.6873E-05     0.2930E-05
  1  0.52E-01    205     [SUB230      230.00]     0.4969E-05     0.1593E-05
  1  0.69E-01    205     [SUB230      230.00]     0.5292E-05    -0.4450E-05
  1  0.12        205     [SUB230      230.00]    -0.3703E-05    -0.1180E-04
  1  0.12        154     [DOWNTN      230.00]    -0.1124E-04    -0.2574E-05
  1  0.90E-01    203     [EAST230     230.00]    -0.8221E-05    -0.3680E-05
  1  0.79E-01    154     [DOWNTN      230.00]    -0.7422E-05    -0.2795E-05
  1  0.30E-01    203     [EAST230     230.00]    -0.6934E-06     0.2875E-05
  1  0.16        205     [SUB230      230.00]     0.7822E-06     0.1602E-04
  1  0.88E-01    205     [SUB230      230.00]     0.8216E-05     0.3063E-05
  1  0.17        205     [SUB230      230.00]     0.1258E-04     0.1075E-04
  1  0.25E-01    154     [DOWNTN      230.00]    -0.1689E-05    -0.1891E-05
  1  0.10        205     [SUB230      230.00]     0.3298E-05    -0.9466E-05
  1  0.78E-01    205     [SUB230      230.00]    -0.4735E-05    -0.6191E-05
  1  0.18        154     [DOWNTN      230.00]    -0.1146E-04    -0.1371E-04
  1  0.39E-01    154     [DOWNTN      230.00]    -0.1471E-05     0.3591E-05
  1  0.14        205     [SUB230      230.00]    -0.1145E-04     0.7751E-05
  1  0.88E-01    205     [SUB230      230.00]     0.8269E-05     0.3106E-05
  1  0.20        154     [DOWNTN      230.00]     0.1231E-04     0.1539E-04
  1  0.27E-01    206     [URBGEN      18.000]    -0.4957E-06     0.2649E-05
  1  0.12        205     [SUB230      230.00]     0.9333E-05     0.7260E-05
  1  0.47E-01    205     [SUB230      230.00]     0.4048E-05    -0.2339E-05
  1  0.86E-01    154     [DOWNTN      230.00]     0.3039E-05    -0.8022E-05
  1  0.13        205     [SUB230      230.00]    -0.6318E-05    -0.1115E-04
  1  0.12        154     [DOWNTN      230.00]    -0.1128E-04    -0.4883E-05
  1  0.69E-01    203     [EAST230     230.00]    -0.6473E-05    -0.2241E-05
  1  0.59E-01    154     [DOWNTN      230.00]    -0.5788E-05     0.1344E-05
  1  0.87E-01    154     [DOWNTN      230.00]    -0.2140E-05     0.8472E-05
  1  0.13        205     [SUB230      230.00]     0.7067E-05     0.1061E-04
  1  0.11        154     [DOWNTN      230.00]     0.9676E-05     0.5651E-05
  1  0.53E-01    203     [EAST230     230.00]     0.4846E-05     0.2138E-05
  1  0.47E-01    154     [DOWNTN      230.00]     0.4674E-05     0.1361E-06
  1  0.86E-01    205     [SUB230      230.00]     0.4650E-05    -0.7195E-05
  1  0.12        205     [SUB230      230.00]    -0.7111E-05    -0.9202E-05
  1  0.11        154     [DOWNTN      230.00]    -0.1030E-04    -0.3229E-05
  1  0.65E-01    203     [EAST230     230.00]    -0.6341E-05    -0.1229E-05
  1  0.57E-01    154     [DOWNTN      230.00]    -0.5276E-05     0.2264E-05
  1  0.86E-01    154     [DOWNTN      230.00]    -0.3317E-06     0.8628E-05
  1  0.13        205     [SUB230      230.00]     0.7295E-05     0.1055E-04
  1  0.11        154     [DOWNTN      230.00]     0.9347E-05     0.4855E-05
  1  0.49E-01    203     [EAST230     230.00]     0.4573E-05     0.1779E-05
  1  0.87E-01    205     [SUB230      230.00]     0.8667E-05    -0.8482E-06
  1  0.65E-01    205     [SUB230      230.00]     0.1239E-06    -0.6468E-05
  1  0.13        154     [DOWNTN      230.00]    -0.6590E-05    -0.1069E-04
  1  0.12        154     [DOWNTN      230.00]    -0.1140E-04    -0.2419E-05
  1  0.60E-01    203     [EAST230     230.00]    -0.5991E-05    -0.2966E-06
  1  0.64E-01    154     [DOWNTN      230.00]    -0.5393E-05     0.3510E-05
  1  0.10        154     [DOWNTN      230.00]     0.2729E-06     0.9859E-05
  1  0.12        154     [DOWNTN      230.00]     0.1092E-04     0.4376E-05
  1  0.10        154     [DOWNTN      230.00]     0.6698E-05     0.6849E-05
  1  0.23E-01    206     [URBGEN      18.000]     0.8909E-06     0.2128E-05
  1  0.54E-01    205     [SUB230      230.00]     0.5357E-05    -0.1600E-06
  1  0.51E-01    154     [DOWNTN      230.00]     0.2674E-05    -0.4313E-05
  1  0.10        205     [SUB230      230.00]    -0.3074E-05    -0.9258E-05
  1  0.13        205     [SUB230      230.00]    -0.9798E-05    -0.8581E-05
  1  0.66E-01    154     [DOWNTN      230.00]    -0.6615E-05     0.4240E-06
  1  0.79E-01    154     [DOWNTN      230.00]    -0.7213E-05     0.3341E-05
  1  0.10        205     [SUB230      230.00]     0.5070E-06     0.9592E-05
  1  0.12        154     [DOWNTN      230.00]     0.1069E-04     0.6217E-05
  1  0.10        154     [DOWNTN      230.00]     0.6521E-05     0.7286E-05
  1  0.29E-01    205     [SUB230      230.00]     0.2128E-05     0.2022E-05
  1  0.71E-01    205     [SUB230      230.00]     0.7081E-05     0.8415E-06
  1  0.60E-01    205     [SUB230      230.00]     0.2633E-05    -0.5400E-05
  1  0.10        154     [DOWNTN      230.00]    -0.2448E-05    -0.9602E-05
  1  0.11        154     [DOWNTN      230.00]    -0.1129E-04    -0.1219E-05
  1  0.66E-01    203     [EAST230     230.00]    -0.6271E-05    -0.2169E-05
  1  0.50E-01    154     [DOWNTN      230.00]    -0.5045E-05     0.1444E-06
  1  0.85E-01    205     [SUB230      230.00]    -0.5354E-05     0.6565E-05
  1  0.11        205     [SUB230      230.00]     0.7105E-05     0.8966E-05
  1  0.11        154     [DOWNTN      230.00]     0.9510E-05     0.4935E-05
  1  0.67E-01    203     [EAST230     230.00]     0.5643E-05     0.3651E-05
  1  0.63E-01    154     [DOWNTN      230.00]     0.5431E-05     0.3118E-05
  1  0.77E-01    205     [SUB230      230.00]     0.7667E-05     0.8111E-06
  1  0.52E-01    205     [SUB230      230.00]    -0.1121E-05    -0.5093E-05
  1  0.12        154     [DOWNTN      230.00]    -0.4916E-05    -0.1109E-04
  1  0.93E-01    154     [DOWNTN      230.00]    -0.9174E-05    -0.1737E-05
  1  0.11        205     [SUB230      230.00]    -0.9584E-05    -0.4355E-05
  1  0.30E-01    205     [SUB230      230.00]    -0.2063E-05     0.2231E-05
  1  0.83E-01    154     [DOWNTN      230.00]    -0.3272E-06     0.8293E-05
  1  0.13        205     [SUB230      230.00]     0.5307E-05     0.1196E-04
  1  0.10        154     [DOWNTN      230.00]     0.9180E-05     0.2615E-05
...

 3.0000 -1.64434E-07 -4.64308E-07 -5.32003E-07 -7.31817E-07   1.0164       1.0358
    7     1.0148      0.97463       1512.1       1500.0     -1.28174E-02   200.00
   13     1300.0
  1  0.62E-01    154     [DOWNTN      230.00]    -0.6125E-05    -0.8707E-06
  1  0.48E-01    154     [DOWNTN      230.00]    -0.2874E-05     0.3887E-05
  1  0.10        154     [DOWNTN      230.00]     0.1812E-05     0.9895E-05
  1  0.10        154     [DOWNTN      230.00]     0.9236E-05     0.4297E-05
  1  0.12        205     [SUB230      230.00]     0.8666E-05     0.8896E-05
  1  0.13E-01    102     [NUC-B       21.600]     0.1862E-06     0.1287E-05
  1  0.58E-01    154     [DOWNTN      230.00]     0.2960E-05    -0.4991E-05
  1  0.10        154     [DOWNTN      230.00]     0.1892E-06    -0.1046E-04
  1  0.10        154     [DOWNTN      230.00]    -0.9646E-05    -0.2554E-05
  1  0.12        205     [SUB230      230.00]    -0.1064E-04    -0.6233E-05
  1  0.20E-01    205     [SUB230      230.00]     0.6205E-06     0.1872E-05
  1  0.12        205     [SUB230      230.00]    -0.1573E-05     0.1189E-04
  1  0.82E-01    203     [EAST230     230.00]     0.5116E-05     0.6371E-05
  1  0.16        205     [SUB230      230.00]     0.9958E-05     0.1204E-04
  1  0.37E-01    154     [DOWNTN      230.00]     0.3615E-05     0.8915E-06
  1  0.12        205     [SUB230      230.00]     0.1157E-04     0.1328E-05
  1  0.59E-01    205     [SUB230      230.00]    -0.1798E-05    -0.5617E-05
  1  0.13        154     [DOWNTN      230.00]    -0.4925E-05    -0.1244E-04
  1  0.11        205     [SUB230      230.00]    -0.1052E-04    -0.4479E-05
  1  0.68E-01    154     [DOWNTN      230.00]    -0.6490E-05    -0.2054E-05
  1  0.56E-01    205     [SUB230      230.00]    -0.5558E-05     0.9643E-06
  1  0.85E-01    154     [DOWNTN      230.00]    -0.1548E-05     0.8343E-05
  1  0.13        205     [SUB230      230.00]     0.5653E-05     0.1177E-04
  1  0.12        154     [DOWNTN      230.00]     0.1009E-04     0.5900E-05
  1  0.63E-01    203     [EAST230     230.00]     0.5509E-05     0.3145E-05
  1  0.45E-01    205     [SUB230      230.00]     0.4337E-05     0.1220E-05
  1  0.73E-01    205     [SUB230      230.00]     0.5104E-05    -0.5278E-05
  1  0.12        205     [SUB230      230.00]    -0.3834E-05    -0.1161E-04
  1  0.12        154     [DOWNTN      230.00]    -0.1150E-04    -0.2319E-05
  1  0.87E-01    203     [EAST230     230.00]    -0.8273E-05    -0.2551E-05
  1  0.68E-01    154     [DOWNTN      230.00]    -0.6765E-05    -0.3209E-06
  1  0.66E-01    154     [DOWNTN      230.00]    -0.2434E-05     0.6086E-05
  1  0.15        154     [DOWNTN      230.00]     0.4082E-05     0.1419E-04
  1  0.11        154     [DOWNTN      230.00]     0.1109E-04     0.4885E-06
  1  0.90E-01    154     [DOWNTN      230.00]     0.7032E-05     0.5665E-05
  1  0.76E-01    154     [DOWNTN      230.00]     0.4674E-05     0.6034E-05
  1  0.14E-01   3011     [MINE_G      13.800]     0.2279E-06     0.1336E-05
  1  0.80E-01    205     [SUB230      230.00]     0.9269E-06    -0.7955E-05
  1  0.14        154     [DOWNTN      230.00]    -0.1452E-05    -0.1426E-04
  1  0.11        154     [DOWNTN      230.00]    -0.9918E-05     0.4397E-05
  1  0.14        154     [DOWNTN      230.00]    -0.1402E-04     0.7407E-06
  1  0.57E-01    154     [DOWNTN      230.00]     0.5112E-05     0.2418E-05
  1  0.14        205     [SUB230      230.00]     0.6888E-05     0.1170E-04
  1  0.82E-01    205     [SUB230      230.00]     0.5619E-05     0.5974E-05
  1  0.12        205     [SUB230      230.00]     0.7588E-05     0.8748E-05
  1  0.59E-01    205     [SUB230      230.00]     0.5660E-05     0.1673E-05
  1  0.68E-01    154     [DOWNTN      230.00]     0.4677E-05    -0.4901E-05
  1  0.10        154     [DOWNTN      230.00]     0.5523E-06    -0.1040E-04
  1  0.13        154     [DOWNTN      230.00]    -0.1264E-04    -0.3702E-05
  1  0.94E-01    154     [DOWNTN      230.00]    -0.7975E-05    -0.5068E-05
  1  0.19E-01    203     [EAST230     230.00]    -0.1561E-05     0.1071E-05
  1  0.10        205     [SUB230      230.00]    -0.5053E-05     0.8896E-05
  1  0.81E-01    205     [SUB230      230.00]     0.5976E-05     0.5499E-05
  1  0.18        154     [DOWNTN      230.00]     0.1108E-04     0.1446E-04
  1  0.16E-01   3011     [MINE_G      13.800]     0.2672E-06     0.1544E-05
  1  0.85E-01    205     [SUB230      230.00]     0.8500E-05     0.3986E-06
  1  0.64E-01    205     [SUB230      230.00]     0.2973E-05    -0.5648E-05
  1  0.12        205     [SUB230      230.00]    -0.4815E-05    -0.1135E-04
  1  0.11        154     [DOWNTN      230.00]    -0.1089E-04    -0.1607E-05
  1  0.78E-01    203     [EAST230     230.00]    -0.7686E-05    -0.1536E-05
  1  0.63E-01    154     [DOWNTN      230.00]    -0.6056E-05     0.1672E-05
  1  0.90E-01    154     [DOWNTN      230.00]    -0.1257E-05     0.8873E-05
  1  0.14        205     [SUB230      230.00]     0.8698E-05     0.1112E-04
  1  0.11        154     [DOWNTN      230.00]     0.9206E-05     0.6671E-05
  1  0.57E-01    203     [EAST230     230.00]     0.4953E-05     0.2790E-05
  1  0.37E-01    205     [SUB230      230.00]     0.3627E-05     0.7017E-06
  1  0.80E-01    205     [SUB230      230.00]     0.4535E-05    -0.6634E-05
  1  0.13        205     [SUB230      230.00]    -0.3599E-05    -0.1279E-04
  1  0.11        154     [DOWNTN      230.00]    -0.1140E-04     0.4380E-07
  1  0.83E-01    203     [EAST230     230.00]    -0.8063E-05    -0.1839E-05
  1  0.58E-01    154     [DOWNTN      230.00]    -0.5641E-05     0.1305E-05
  1  0.83E-01    154     [DOWNTN      230.00]    -0.7103E-06     0.8248E-05
  1  0.14        205     [SUB230      230.00]     0.7489E-05     0.1147E-04
  1  0.11        154     [DOWNTN      230.00]     0.9997E-05     0.4585E-05
  1  0.55E-01    203     [EAST230     230.00]     0.4619E-05     0.3069E-05
  1  0.55E-01    154     [DOWNTN      230.00]     0.5067E-05     0.2196E-05
  1  0.68E-01    205     [SUB230      230.00]     0.6265E-05    -0.2635E-05
  1  0.88E-01    205     [SUB230      230.00]    -0.2907E-05    -0.8345E-05
  1  0.11        154     [DOWNTN      230.00]    -0.9591E-05    -0.4474E-05
  1  0.13        205     [SUB230      230.00]    -0.1097E-04    -0.7854E-05
  1  0.17E-01    203     [EAST230     230.00]    -0.2714E-06     0.1655E-05
  1  0.11        205     [SUB230      230.00]    -0.4046E-05     0.1059E-04
  1  0.83E-01    205     [SUB230      230.00]     0.5536E-05     0.6218E-05
  1  0.19        154     [DOWNTN      230.00]     0.1147E-04     0.1490E-04
  1  0.23E-01    154     [DOWNTN      230.00]     0.5658E-06    -0.2259E-05
  1  0.10        205     [SUB230      230.00]     0.9836E-05    -0.3275E-05
  1  0.72E-01    205     [SUB230      230.00]    -0.1620E-05    -0.7046E-05
  1  0.13        154     [DOWNTN      230.00]    -0.1065E-04    -0.7127E-05
  1  0.87E-01    205     [SUB230      230.00]    -0.7417E-05    -0.4625E-05
  1  0.84E-01    205     [SUB230      230.00]    -0.6812E-05    -0.4947E-05
  1  0.61E-01    154     [DOWNTN      230.00]    -0.5481E-05     0.2677E-05
  1  0.94E-01    154     [DOWNTN      230.00]    -0.2981E-05     0.8951E-05
  1  0.14        154     [DOWNTN      230.00]     0.1086E-04     0.8093E-05
  1  0.12        154     [DOWNTN      230.00]     0.7634E-05     0.9581E-05
  1  0.53E-01    203     [EAST230     230.00]     0.3375E-05     0.4074E-05
  1  0.54E-01    205     [SUB230      230.00]     0.4973E-05     0.2194E-05
  1  0.93E-01    205     [SUB230      230.00]     0.8895E-05    -0.2857E-05
  1  0.90E-01    205     [SUB230      230.00]    -0.4104E-05    -0.7983E-05
  1  0.14        154     [DOWNTN      230.00]    -0.1004E-04    -0.9161E-05
  1  0.63E-01    205     [SUB230      230.00]    -0.5692E-05    -0.2673E-05
  1  0.71E-01    205     [SUB230      230.00]    -0.7035E-05    -0.1234E-05
  1  0.63E-01    154     [DOWNTN      230.00]    -0.4160E-05     0.4702E-05
  1  0.12        205     [SUB230      230.00]     0.1047E-05     0.1224E-04
  1  0.12        154     [DOWNTN      230.00]     0.1134E-04     0.4466E-05
  1  0.89E-01    154     [DOWNTN      230.00]     0.6228E-05     0.6310E-05
  1  0.94E-01    205     [SUB230      230.00]     0.6310E-05     0.7028E-05
  1  0.35E-01    205     [SUB230      230.00]     0.1655E-05    -0.3111E-05
  1  0.12        205     [SUB230      230.00]     0.5419E-05    -0.1089E-04
  1  0.11        205     [SUB230      230.00]    -0.1033E-04    -0.2493E-05
  1  0.16        205     [SUB230      230.00]    -0.1271E-04    -0.9392E-05
  1  0.91E-02    102     [NUC-B       21.600]    -0.9074E-06     0.1467E-08
  1  0.66E-01    205     [SUB230      230.00]    -0.5190E-05     0.4021E-05
  1  0.11        154     [DOWNTN      230.00]    -0.2770E-05     0.1074E-04
  1  0.11        154     [DOWNTN      230.00]     0.1004E-04     0.5611E-05
  1  0.11        203     [EAST230     230.00]     0.7849E-05     0.7351E-05
  1  0.33E-01    205     [SUB230      230.00]     0.2287E-05     0.2384E-05
  1  0.68E-01    205     [SUB230      230.00]     0.6691E-05     0.1110E-05
  1  0.41E-01    154     [DOWNTN      230.00]     0.3298E-05    -0.2491E-05
  1  0.12        205     [SUB230      230.00]    -0.1296E-06    -0.1150E-04
  1  0.11        154     [DOWNTN      230.00]    -0.1138E-04    -0.9605E-06
  1  0.14        205     [SUB230      230.00]    -0.1246E-04    -0.5551E-05
  1  0.31E-01    205     [SUB230      230.00]     0.2475E-05     0.1895E-05
  1  0.13        205     [SUB230      230.00]     0.7239E-06     0.1279E-04
  1  0.79E-01    203     [EAST230     230.00]     0.3936E-05     0.6903E-05
  1  0.17        205     [SUB230      230.00]     0.1019E-04     0.1404E-04
  1  0.49E-01    154     [DOWNTN      230.00]     0.1589E-05    -0.4613E-05
  1  0.14        205     [SUB230      230.00]     0.9769E-05    -0.9565E-05
  1  0.10        205     [SUB230      230.00]    -0.9884E-05    -0.1201E-05
  1  0.19        154     [DOWNTN      230.00]    -0.1447E-04    -0.1180E-04
  1  0.35E-01    154     [DOWNTN      230.00]     0.3450E-05    -0.1393E-06
  1  0.48E-01    205     [SUB230      230.00]    -0.4593E-05     0.1277E-05
  1  0.13        205     [SUB230      230.00]    -0.8848E-05     0.9924E-05
  1  0.10        205     [SUB230      230.00]     0.9403E-05     0.4240E-05
  1  0.18        205     [SUB230      230.00]     0.1131E-04     0.1347E-04
  1  0.25E-01    206     [URBGEN      18.000]    -0.2228E-06     0.2487E-05
  1  0.82E-01    205     [SUB230      230.00]     0.7380E-05     0.3463E-05
  1  0.58E-01    154     [DOWNTN      230.00]     0.5070E-05    -0.2779E-05
  1  0.74E-01    154     [DOWNTN      230.00]     0.6043E-06    -0.7414E-05
  1  0.12        205     [SUB230      230.00]    -0.8526E-05    -0.8999E-05
  1  0.10        154     [DOWNTN      230.00]    -0.9403E-05    -0.2288E-05
  1  0.78E-01    205     [SUB230      230.00]    -0.7792E-05    -0.9212E-06
  1  0.60E-01    154     [DOWNTN      230.00]    -0.3450E-05     0.4923E-05
  1  0.13        205     [SUB230      230.00]     0.2503E-05     0.1285E-04
  1  0.12        154     [DOWNTN      230.00]     0.1122E-04     0.4706E-05
  1  0.86E-01    205     [SUB230      230.00]     0.6556E-05     0.5505E-05
  1  0.68E-01    205     [SUB230      230.00]     0.4338E-05     0.5176E-05
  1  0.34E-01    154     [DOWNTN      230.00]     0.3166E-05     0.1302E-05
  1  0.72E-01    205     [SUB230      230.00]     0.4359E-05    -0.5749E-05
  1  0.11        154     [DOWNTN      230.00]    -0.7358E-06    -0.1111E-04
  1  0.13        154     [DOWNTN      230.00]    -0.1242E-04    -0.2159E-05
  1  0.81E-01    203     [EAST230     230.00]    -0.7727E-05    -0.2261E-05
  1  0.62E-01    154     [DOWNTN      230.00]    -0.6141E-05     0.3439E-06
  1  0.68E-01    154     [DOWNTN      230.00]    -0.2109E-05     0.6423E-05
  1  0.14        154     [DOWNTN      230.00]     0.4133E-05     0.1361E-04
  1  0.11        154     [DOWNTN      230.00]     0.1070E-04     0.2773E-05
  1  0.75E-01    203     [EAST230     230.00]     0.6580E-05     0.3659E-05
  1  0.46E-01    205     [SUB230      230.00]     0.3689E-05     0.2781E-05
  1  0.43E-01    205     [SUB230      230.00]     0.4206E-05    -0.1062E-05
  1  0.52E-01    205     [SUB230      230.00]    -0.1934E-07    -0.5234E-05
  1  0.12        154     [DOWNTN      230.00]    -0.5875E-05    -0.1027E-04
  1  0.88E-01    154     [DOWNTN      230.00]    -0.8682E-05    -0.1152E-05
  1  0.89E-01    205     [SUB230      230.00]    -0.8687E-05    -0.1943E-05
  1  0.63E-01    154     [DOWNTN      230.00]    -0.3878E-05     0.4985E-05
  1  0.11        154     [DOWNTN      230.00]     0.4485E-06     0.1148E-04
  1  0.13        154     [DOWNTN      230.00]     0.1206E-04     0.4621E-05
  1  0.89E-01    205     [SUB230      230.00]     0.6507E-05     0.6062E-05
  1  0.76E-01    205     [SUB230      230.00]     0.4199E-05     0.6295E-05
  1  0.46E-01    154     [DOWNTN      230.00]     0.3518E-05     0.3035E-05
  1  0.63E-01    154     [DOWNTN      230.00]     0.6087E-05    -0.1609E-05
  1  0.72E-01    154     [DOWNTN      230.00]     0.2119E-05    -0.6911E-05
  1  0.12        205     [SUB230      230.00]    -0.7723E-05    -0.8887E-05
  1  0.10        154     [DOWNTN      230.00]    -0.9704E-05    -0.2499E-05
  1  0.89E-01    205     [SUB230      230.00]    -0.8548E-05    -0.2548E-05
  1  0.53E-01    205     [SUB230      230.00]    -0.3037E-05     0.4344E-05
  1  0.11        154     [DOWNTN      230.00]    -0.4616E-06     0.1053E-04
  1  0.11        154     [DOWNTN      230.00]     0.1049E-04     0.3814E-05
  1  0.14        205     [SUB230      230.00]     0.9885E-05     0.1049E-04
  1  0.19E-01   3011     [MINE_G      13.800]    -0.1126E-06     0.1854E-05
  1  0.33E-01    205     [SUB230      230.00]     0.3063E-05    -0.1332E-05
  1  0.10        205     [SUB230      230.00]     0.4105E-05    -0.9228E-05
  1  0.87E-01    205     [SUB230      230.00]    -0.8186E-05    -0.2812E-05
  1  0.16        154     [DOWNTN      230.00]    -0.1364E-04    -0.8370E-05
  1  0.44E-01    154     [DOWNTN      230.00]     0.3593E-05     0.2521E-05
  1  0.11        205     [SUB230      230.00]    -0.1534E-05     0.1106E-04
  1  0.79E-01    203     [EAST230     230.00]     0.2334E-05     0.7510E-05
  1  0.18        205     [SUB230      230.00]     0.8633E-05     0.1555E-04
  1  0.55E-01    154     [DOWNTN      230.00]     0.4040E-05    -0.3805E-05
  1  0.10        154     [DOWNTN      230.00]     0.9640E-05    -0.3283E-05
  1  0.83E-01    205     [SUB230      230.00]    -0.3606E-05    -0.7475E-05
  1  0.13        154     [DOWNTN      230.00]    -0.9255E-05    -0.8531E-05
  1  0.80E-01    205     [SUB230      230.00]    -0.7417E-05    -0.2958E-05
  1  0.83E-01    205     [SUB230      230.00]    -0.7628E-05    -0.3299E-05
  1  0.63E-01    154     [DOWNTN      230.00]    -0.6038E-05     0.1734E-05
  1  0.10        205     [SUB230      230.00]    -0.1086E-05     0.9673E-05
  1  0.13        154     [DOWNTN      230.00]     0.1033E-04     0.8239E-05
  1  0.12        205     [SUB230      230.00]     0.7279E-05     0.9627E-05
  1  0.56E-01    203     [EAST230     230.00]     0.3678E-05     0.4198E-05
...

 5.0000  3.30168E-07  4.23165E-07  4.57502E-07  5.76700E-07   1.0164       1.0358
    7     1.0148      0.97464       1512.0       1500.0     -1.02539E-02   199.99
   13     1300.0
  1  0.16        154     [DOWNTN      230.00]    -0.1198E-04    -0.1059E-04
  1  0.12E-01    205     [SUB230      230.00]     0.6302E-06    -0.1066E-05
  1  0.73E-01    205     [SUB230      230.00]    -0.7191E-05    -0.1195E-05
  1  0.75E-01    154     [DOWNTN      230.00]    -0.6645E-05     0.3441E-05
  1  0.11        205     [SUB230      230.00]    -0.4119E-06     0.1073E-04
  1  0.14        154     [DOWNTN      230.00]     0.1210E-04     0.6272E-05
  1  0.11        154     [DOWNTN      230.00]     0.7588E-05     0.8502E-05
  1  0.36E-01    205     [SUB230      230.00]     0.2048E-05     0.2976E-05
  1  0.10        205     [SUB230      230.00]     0.8337E-05     0.4820E-05
  1  0.39E-01    205     [SUB230      230.00]     0.2733E-06    -0.3841E-05
  1  0.13        205     [SUB230      230.00]     0.2757E-05    -0.1310E-04
  1  0.10        205     [SUB230      230.00]    -0.1001E-04     0.2001E-06
  1  0.16        154     [DOWNTN      230.00]    -0.1491E-04    -0.6052E-05
  1  0.58E-01    154     [DOWNTN      230.00]     0.5346E-05     0.2143E-05
  1  0.13        205     [SUB230      230.00]     0.3175E-05     0.1297E-04
  1  0.86E-01    154     [DOWNTN      230.00]     0.1366E-05     0.8507E-05
  1  0.87E-01    203     [EAST230     230.00]     0.6440E-05     0.5792E-05
  1  0.13        154     [DOWNTN      230.00]     0.9670E-05     0.8238E-05
  1  0.31E-01    205     [SUB230      230.00]     0.3050E-05    -0.3163E-06
  1  0.48E-01    154     [DOWNTN      230.00]     0.3058E-05    -0.3695E-05
  1  0.11        205     [SUB230      230.00]    -0.2487E-05    -0.1064E-04
  1  0.12        154     [DOWNTN      230.00]    -0.1044E-04    -0.4904E-05
  1  0.86E-01    203     [EAST230     230.00]    -0.7976E-05    -0.3202E-05
  1  0.73E-01    205     [SUB230      230.00]    -0.7072E-05    -0.1617E-05
  1  0.63E-01    154     [DOWNTN      230.00]    -0.4149E-05     0.4745E-05
  1  0.13        154     [DOWNTN      230.00]     0.1267E-05     0.1296E-04
  1  0.12        154     [DOWNTN      230.00]     0.1123E-04     0.5460E-05
  1  0.92E-01    205     [SUB230      230.00]     0.6643E-05     0.6419E-05
  1  0.68E-01    205     [SUB230      230.00]     0.5194E-05     0.4331E-05
  1  0.30E-01    154     [DOWNTN      230.00]     0.2959E-05    -0.5208E-06
  1  0.81E-01    205     [SUB230      230.00]     0.5866E-05    -0.5525E-05
  1  0.11        205     [SUB230      230.00]    -0.4686E-05    -0.9721E-05
  1  0.12        154     [DOWNTN      230.00]    -0.1166E-04     0.4613E-06
  1  0.12        205     [SUB230      230.00]    -0.1090E-04    -0.3675E-05
  1  0.22E-01    203     [EAST230     230.00]    -0.4431E-06     0.2152E-05
  1  0.12        205     [SUB230      230.00]    -0.2326E-05     0.1215E-04
  1  0.10        205     [SUB230      230.00]     0.8964E-05     0.4196E-05
  1  0.16        205     [SUB230      230.00]     0.1108E-04     0.1161E-04
  1  0.22E-01    206     [URBGEN      18.000]     0.2412E-06     0.2229E-05
  1  0.62E-01    205     [SUB230      230.00]     0.6139E-05     0.1084E-05
  1  0.46E-01    154     [DOWNTN      230.00]     0.3587E-05    -0.2833E-05
  1  0.13        205     [SUB230      230.00]     0.1664E-06    -0.1279E-04
  1  0.12        154     [DOWNTN      230.00]    -0.1161E-04    -0.9059E-06
  1  0.14        205     [SUB230      230.00]    -0.1312E-04    -0.5661E-05
  1  0.38E-01    205     [SUB230      230.00]     0.2864E-05     0.2495E-05
  1  0.14        205     [SUB230      230.00]    -0.9405E-07     0.1385E-04
  1  0.77E-01    154     [DOWNTN      230.00]     0.4060E-05     0.6563E-05
  1  0.15        205     [SUB230      230.00]     0.9023E-05     0.1178E-04
  1  0.43E-01    154     [DOWNTN      230.00]     0.4278E-05    -0.6428E-06
  1  0.12        205     [SUB230      230.00]     0.1124E-04    -0.2919E-05
  1  0.10        205     [SUB230      230.00]    -0.9115E-05    -0.3693E-05
  1  0.18        154     [DOWNTN      230.00]    -0.1146E-04    -0.1363E-04
  1  0.11E-01    102     [NUC-B       21.600]    -0.1123E-05     0.1019E-06
  1  0.12        205     [SUB230      230.00]    -0.1123E-04    -0.3175E-05
  1  0.55E-01    205     [SUB230      230.00]    -0.3211E-05     0.4421E-05
  1  0.11        154     [DOWNTN      230.00]    -0.1898E-06     0.1129E-04
  1  0.13        205     [SUB230      230.00]     0.1009E-04     0.7562E-05
  1  0.10        205     [SUB230      230.00]     0.7019E-05     0.6994E-05
  1  0.36E-01    203     [EAST230     230.00]     0.2808E-05     0.2177E-05
  1  0.77E-01    205     [SUB230      230.00]     0.7439E-05     0.2054E-05
  1  0.43E-01    205     [SUB230      230.00]     0.1746E-05    -0.3963E-05
  1  0.87E-01    154     [DOWNTN      230.00]    -0.2599E-05    -0.8318E-05
  1  0.13        205     [SUB230      230.00]    -0.9397E-05    -0.8625E-05
  1  0.78E-01    154     [DOWNTN      230.00]    -0.7781E-05     0.2351E-06
  1  0.10        154     [DOWNTN      230.00]    -0.9005E-05     0.3845E-05
  1  0.11        205     [SUB230      230.00]     0.3480E-05     0.1016E-04
  1  0.11        154     [DOWNTN      230.00]     0.8401E-05     0.7709E-05
  1  0.93E-01    205     [SUB230      230.00]     0.6801E-05     0.6346E-05
  1  0.67E-01    154     [DOWNTN      230.00]     0.4974E-05     0.4488E-05
  1  0.59E-01    154     [DOWNTN      230.00]     0.4837E-05     0.3367E-05
  1  0.64E-01    205     [SUB230      230.00]     0.6354E-05     0.7588E-06
  1  0.63E-01    205     [SUB230      230.00]    -0.1070E-05    -0.6180E-05
  1  0.14        154     [DOWNTN      230.00]    -0.5407E-05    -0.1289E-04
  1  0.10        154     [DOWNTN      230.00]    -0.9430E-05     0.2690E-05
  1  0.14        154     [DOWNTN      230.00]    -0.1384E-04    -0.5132E-06
  1  0.39E-01    203     [EAST230     230.00]     0.3068E-05     0.2469E-05
  1  0.15        205     [SUB230      230.00]     0.1630E-05     0.1476E-04
  1  0.78E-01    205     [SUB230      230.00]     0.7380E-05     0.2635E-05
  1  0.13        205     [SUB230      230.00]     0.1019E-04     0.7976E-05
  1  0.18E-01   3011     [MINE_G      13.800]     0.4271E-06     0.1719E-05
  1  0.52E-01    205     [SUB230      230.00]     0.1673E-05    -0.4932E-05
  1  0.11        154     [DOWNTN      230.00]    -0.1264E-05    -0.1064E-04
  1  0.94E-01    154     [DOWNTN      230.00]    -0.9140E-05    -0.2314E-05
  1  0.12        205     [SUB230      230.00]    -0.1065E-04    -0.5186E-05
  1  0.43E-01    205     [SUB230      230.00]    -0.4167E-05     0.9937E-06
  1  0.79E-01    154     [DOWNTN      230.00]    -0.2709E-05     0.7442E-05
  1  0.14        205     [SUB230      230.00]     0.5118E-05     0.1254E-04
  1  0.13        154     [DOWNTN      230.00]     0.1084E-04     0.7591E-05
  1  0.47E-01    205     [SUB230      230.00]     0.3169E-05     0.3405E-05
  1  0.78E-01    154     [DOWNTN      230.00]     0.6516E-05     0.4200E-05
  1  0.23E-01    205     [SUB230      230.00]     0.2212E-05    -0.4564E-06
  1  0.91E-01    205     [SUB230      230.00]     0.1733E-05    -0.8983E-05
  1  0.82E-01    205     [SUB230      230.00]    -0.7031E-05    -0.4178E-05
  1  0.15        154     [DOWNTN      230.00]    -0.1222E-04    -0.9214E-05
  1  0.22E-01    203     [EAST230     230.00]    -0.5379E-06     0.2112E-05
  1  0.12        205     [SUB230      230.00]    -0.6210E-05     0.1020E-04
  1  0.95E-01    205     [SUB230      230.00]     0.6580E-05     0.6808E-05
  1  0.18        205     [SUB230      230.00]     0.1085E-04     0.1469E-04
  1  0.24E-01    206     [URBGEN      18.000]     0.1166E-05     0.2071E-05
  1  0.11        205     [SUB230      230.00]     0.1085E-04     0.2551E-05
  1  0.33E-01    205     [SUB230      230.00]     0.2334E-06    -0.3257E-05
  1  0.10        154     [DOWNTN      230.00]    -0.4154E-05    -0.8944E-05
  1  0.13        205     [SUB230      230.00]    -0.8765E-05    -0.9823E-05
  1  0.73E-01    154     [DOWNTN      230.00]    -0.7251E-05    -0.7746E-06
  1  0.10        154     [DOWNTN      230.00]    -0.9410E-05     0.2177E-05
  1  0.11        205     [SUB230      230.00]     0.2097E-05     0.1054E-04
  1  0.12        154     [DOWNTN      230.00]     0.8093E-05     0.9286E-05
  1  0.12        205     [SUB230      230.00]     0.7671E-05     0.8710E-05
  1  0.67E-01    203     [EAST230     230.00]     0.4500E-05     0.4936E-05
  1  0.82E-01    154     [DOWNTN      230.00]     0.6870E-05     0.4452E-05
  1  0.21E-01    205     [SUB230      230.00]     0.1749E-05    -0.1244E-05
  1  0.12        205     [SUB230      230.00]     0.1257E-05    -0.1213E-04
  1  0.87E-01    205     [SUB230      230.00]    -0.7824E-05    -0.3894E-05
  1  0.14        205     [SUB230      230.00]    -0.1178E-04    -0.7972E-05
  1  0.29E-01    154     [DOWNTN      230.00]    -0.1340E-05     0.2520E-05
  1  0.14        205     [SUB230      230.00]    -0.6628E-05     0.1235E-04
  1  0.11        205     [SUB230      230.00]     0.9001E-05     0.5837E-05
  1  0.18        205     [SUB230      230.00]     0.1132E-04     0.1463E-04
  1  0.21E-01   3011     [MINE_G      13.800]     0.6220E-06     0.2003E-05
  1  0.94E-01    205     [SUB230      230.00]     0.9353E-05    -0.3055E-06
  1  0.66E-01    205     [SUB230      230.00]     0.2283E-05    -0.6188E-05
  1  0.13        205     [SUB230      230.00]    -0.7342E-05    -0.1072E-04
  1  0.11        154     [DOWNTN      230.00]    -0.1072E-04    -0.1915E-05
  1  0.72E-01    203     [EAST230     230.00]    -0.7153E-05    -0.3793E-06
  1  0.69E-01    154     [DOWNTN      230.00]    -0.5492E-05     0.4214E-05
  1  0.12        154     [DOWNTN      230.00]     0.2007E-06     0.1214E-04
  1  0.14        154     [DOWNTN      230.00]     0.1214E-04     0.6208E-05
  1  0.11        205     [SUB230      230.00]     0.7399E-05     0.8707E-05
  1  0.39E-01    203     [EAST230     230.00]     0.2364E-05     0.3134E-05
  1  0.10        205     [SUB230      230.00]     0.8614E-05     0.5340E-05
  1  0.43E-01    154     [DOWNTN      230.00]    -0.8261E-07    -0.4324E-05
  1  0.92E-01    154     [DOWNTN      230.00]    -0.3852E-06    -0.9176E-05
  1  0.11        205     [SUB230      230.00]    -0.7306E-05    -0.8695E-05
  1  0.92E-01    154     [DOWNTN      230.00]    -0.9124E-05    -0.8150E-06
  1  0.11        154     [DOWNTN      230.00]    -0.1045E-04     0.1291E-05
  1  0.93E-01    205     [SUB230      230.00]     0.2886E-05     0.8812E-05
  1  0.15        154     [DOWNTN      230.00]     0.7209E-05     0.1263E-04
  1  0.74E-01    205     [SUB230      230.00]     0.6571E-05     0.3443E-05
  1  0.14        154     [DOWNTN      230.00]     0.1066E-04     0.9284E-05
  1  0.20E-01    154     [DOWNTN      230.00]    -0.1938E-05    -0.2903E-06
  1  0.61E-01    205     [SUB230      230.00]     0.7918E-06    -0.6059E-05
  1  0.12        154     [DOWNTN      230.00]    -0.1267E-05    -0.1227E-04
  1  0.88E-01    154     [DOWNTN      230.00]    -0.8617E-05    -0.1828E-05
  1  0.11        205     [SUB230      230.00]    -0.1069E-04    -0.3241E-05
  1  0.52E-01    203     [EAST230     230.00]    -0.3118E-05     0.4207E-05
  1  0.12        154     [DOWNTN      230.00]     0.1734E-06     0.1203E-04
  1  0.13        205     [SUB230      230.00]     0.1061E-04     0.7703E-05
  1  0.12        205     [SUB230      230.00]     0.7480E-05     0.8876E-05
  1  0.47E-01    203     [EAST230     230.00]     0.3188E-05     0.3508E-05
  1  0.73E-01    154     [DOWNTN      230.00]     0.6293E-05     0.3681E-05
  1  0.57E-01    205     [SUB230      230.00]     0.5589E-05    -0.1303E-05
  1  0.10        205     [SUB230      230.00]    -0.1690E-05    -0.9577E-05
  1  0.95E-01    154     [DOWNTN      230.00]    -0.8550E-05    -0.4122E-05
  1  0.13        205     [SUB230      230.00]    -0.1088E-04    -0.7332E-05
  1  0.19E-01    203     [EAST230     230.00]    -0.9569E-06     0.1624E-05
  1  0.12        205     [SUB230      230.00]    -0.4362E-05     0.1150E-04
  1  0.87E-01    205     [SUB230      230.00]     0.6146E-05     0.6137E-05
  1  0.17        205     [SUB230      230.00]     0.9664E-05     0.1348E-04
  1  0.41E-01    154     [DOWNTN      230.00]     0.3747E-05     0.1737E-05
  1  0.78E-01    154     [DOWNTN      230.00]     0.7293E-05     0.2877E-05
  1  0.22E-01    205     [SUB230      230.00]     0.4783E-06    -0.2162E-05
  1  0.14        205     [SUB230      230.00]    -0.2637E-05    -0.1394E-04
  1  0.80E-01    154     [DOWNTN      230.00]    -0.7201E-05    -0.3431E-05
  1  0.13        205     [SUB230      230.00]    -0.1163E-04    -0.6765E-05
  1  0.36E-01    203     [EAST230     230.00]    -0.2147E-05     0.2834E-05
  1  0.16        205     [SUB230      230.00]    -0.5350E-05     0.1514E-04
  1  0.11        205     [SUB230      230.00]     0.9333E-05     0.4913E-05
  1  0.19        205     [SUB230      230.00]     0.1219E-04     0.1433E-04
  1  0.19E-01   3011     [MINE_G      13.800]     0.4850E-06     0.1862E-05
  1  0.80E-01    205     [SUB230      230.00]     0.7766E-05    -0.1758E-05
  1  0.87E-01    205     [SUB230      230.00]     0.1356E-05    -0.8614E-05
  1  0.11        154     [DOWNTN      230.00]    -0.1017E-04    -0.3465E-05
  1  0.16        205     [SUB230      230.00]    -0.1260E-04    -0.9105E-05
  1  0.12E-01    102     [NUC-B       21.600]    -0.1143E-05     0.4193E-06
  1  0.83E-01    205     [SUB230      230.00]    -0.5194E-05     0.6413E-05
  1  0.15        154     [DOWNTN      230.00]    -0.2653E-05     0.1464E-04
  1  0.14        154     [DOWNTN      230.00]     0.1395E-04     0.2901E-07
  1  0.11        154     [DOWNTN      230.00]     0.7325E-05     0.8770E-05
  1  0.35E-01    154     [DOWNTN      230.00]    -0.1521E-05     0.3117E-05
  1  0.20E-01    206     [URBGEN      18.000]     0.6777E-06     0.1829E-05
  1  0.43E-01    205     [SUB230      230.00]     0.2491E-05    -0.3446E-05
  1  0.13        205     [SUB230      230.00]     0.2766E-05    -0.1288E-04
  1  0.92E-01    205     [SUB230      230.00]    -0.9164E-05     0.1161E-05
  1  0.15        154     [DOWNTN      230.00]    -0.1442E-04    -0.3306E-05
  1  0.47E-01    154     [DOWNTN      230.00]     0.3842E-05     0.2711E-05
  1  0.16        205     [SUB230      230.00]     0.3598E-05     0.1514E-04
  1  0.75E-01    203     [EAST230     230.00]     0.3707E-05     0.6567E-05
  1  0.13        205     [SUB230      230.00]     0.8387E-05     0.9410E-05
  1  0.43E-01    203     [EAST230     230.00]     0.4289E-05    -0.1317E-06
  1  0.11        205     [SUB230      230.00]     0.9862E-05    -0.4367E-05
  1  0.10        205     [SUB230      230.00]    -0.5728E-05    -0.7608E-05
  1  0.11        154     [DOWNTN      230.00]    -0.1073E-04    -0.4087E-05
  1  0.79E-01    154     [DOWNTN      230.00]    -0.6985E-05    -0.3782E-05
  1  0.76E-01    205     [SUB230      230.00]    -0.7055E-05    -0.2723E-05
  1  0.56E-01    154     [DOWNTN      230.00]    -0.5074E-05     0.2297E-05
  1  0.10        154     [DOWNTN      230.00]    -0.4198E-06     0.1004E-04
  1  0.13        154     [DOWNTN      230.00]     0.9971E-05     0.8480E-05
...

 7.0000  9.79992E-07  1.34456E-06  1.42157E-06  1.63891E-06   1.0164       1.0358
    7     1.0149      0.97464       1512.0       1500.0      2.00195E-02   200.00
   13     1300.0
  1  0.90E-01    205     [SUB230      230.00]     0.8878E-05     0.1542E-05
  1  0.45E-01    205     [SUB230      230.00]    -0.7182E-06    -0.4420E-05
  1  0.12        154     [DOWNTN      230.00]    -0.5761E-05    -0.1074E-04
  1  0.10        154     [DOWNTN      230.00]    -0.9353E-05    -0.2820E-05
  1  0.11        205     [SUB230      230.00]    -0.1012E-04    -0.4954E-05
  1  0.47E-01    205     [SUB230      230.00]    -0.3557E-05     0.3107E-05
  1  0.11        154     [DOWNTN      230.00]    -0.1950E-05     0.1086E-04
  1  0.12        205     [SUB230      230.00]     0.9147E-05     0.7696E-05
  1  0.12        205     [SUB230      230.00]     0.6943E-05     0.9550E-05
  1  0.46E-01    203     [EAST230     230.00]     0.3472E-05     0.2952E-05
  1  0.70E-01    154     [DOWNTN      230.00]     0.5897E-05     0.3740E-05
  1  0.72E-01    205     [SUB230      230.00]     0.7106E-05     0.1350E-05
  1  0.49E-01    205     [SUB230      230.00]    -0.5557E-06    -0.4837E-05
  1  0.11        154     [DOWNTN      230.00]    -0.4893E-05    -0.9611E-05
  1  0.10        154     [DOWNTN      230.00]    -0.1003E-04    -0.2513E-05
  1  0.10        205     [SUB230      230.00]    -0.9465E-05    -0.3834E-05
  1  0.46E-01    203     [EAST230     230.00]    -0.2406E-05     0.3872E-05
  1  0.11        154     [DOWNTN      230.00]    -0.7318E-06     0.1127E-04
  1  0.10        205     [SUB230      230.00]     0.8292E-05     0.6147E-05
  1  0.16        205     [SUB230      230.00]     0.9486E-05     0.1241E-04
  1  0.21E-01   3011     [MINE_G      13.800]     0.4913E-06     0.2004E-05
  1  0.66E-01    205     [SUB230      230.00]     0.6617E-05    -0.6357E-06
  1  0.52E-01    154     [DOWNTN      230.00]     0.2867E-05    -0.4311E-05
  1  0.10        154     [DOWNTN      230.00]    -0.5130E-05    -0.8982E-05
  1  0.14        205     [SUB230      230.00]    -0.1199E-04    -0.7663E-05
  1  0.49E-01    205     [SUB230      230.00]    -0.3454E-05     0.3484E-05
  1  0.11        154     [DOWNTN      230.00]    -0.6975E-05     0.8745E-05
  1  0.94E-01    205     [SUB230      230.00]     0.7221E-05     0.6096E-05
  1  0.17        205     [SUB230      230.00]     0.9064E-05     0.1451E-04
  1  0.24E-01    206     [URBGEN      18.000]     0.9734E-06     0.2204E-05
  1  0.11        205     [SUB230      230.00]     0.9861E-05     0.3972E-05
  1  0.20E-01    205     [SUB230      230.00]     0.4311E-06    -0.1959E-05
  1  0.11        205     [SUB230      230.00]    -0.3007E-07    -0.1097E-04
  1  0.10        205     [SUB230      230.00]    -0.9650E-05    -0.2964E-05
  1  0.15        205     [SUB230      230.00]    -0.1276E-04    -0.7148E-05
  1  0.18E-01    153     [MID230      230.00]    -0.4145E-06     0.1742E-05
  1  0.12        205     [SUB230      230.00]    -0.4745E-05     0.1146E-04
  1  0.94E-01    205     [SUB230      230.00]     0.6120E-05     0.7139E-05
  1  0.17        205     [SUB230      230.00]     0.9574E-05     0.1450E-04
  1  0.28E-01    205     [SUB230      230.00]     0.2833E-05    -0.2835E-06
  1  0.11        205     [SUB230      230.00]     0.1118E-04     0.2579E-06
  1  0.48E-01    205     [SUB230      230.00]    -0.1798E-05    -0.4415E-05
  1  0.12        205     [SUB230      230.00]    -0.7337E-05    -0.1003E-04
  1  0.94E-01    205     [SUB230      230.00]    -0.8698E-05    -0.3450E-05
  1  0.11        205     [SUB230      230.00]    -0.9614E-05    -0.4412E-05
  1  0.52E-01    205     [SUB230      230.00]    -0.3211E-05     0.4136E-05
  1  0.12        154     [DOWNTN      230.00]    -0.9179E-06     0.1233E-04
  1  0.13        205     [SUB230      230.00]     0.9876E-05     0.8523E-05
  1  0.12        205     [SUB230      230.00]     0.7583E-05     0.9430E-05
  1  0.57E-01    203     [EAST230     230.00]     0.3972E-05     0.4027E-05
  1  0.47E-01    205     [SUB230      230.00]     0.4120E-05     0.2171E-05
  1  0.72E-01    205     [SUB230      230.00]     0.6373E-05    -0.3244E-05
  1  0.10        205     [SUB230      230.00]    -0.1764E-05    -0.9968E-05
  1  0.11        154     [DOWNTN      230.00]    -0.1099E-04    -0.2540E-05
  1  0.13        205     [SUB230      230.00]    -0.1166E-04    -0.6516E-05
  1  0.32E-01    205     [SUB230      230.00]     0.8876E-06     0.3032E-05
  1  0.16        205     [SUB230      230.00]    -0.2099E-05     0.1543E-04
  1  0.89E-01    205     [SUB230      230.00]     0.6732E-05     0.5879E-05
  1  0.18        205     [SUB230      230.00]     0.1152E-04     0.1335E-04
  1  0.16E-01   3011     [MINE_G      13.800]     0.4770E-06     0.1488E-05
  1  0.91E-01    205     [SUB230      230.00]     0.8079E-05    -0.4144E-05
  1  0.10        205     [SUB230      230.00]     0.1495E-06    -0.9942E-05
  1  0.13        154     [DOWNTN      230.00]    -0.1262E-04    -0.1050E-05
  1  0.93E-01    154     [DOWNTN      230.00]    -0.8498E-05    -0.3706E-05
  1  0.77E-01    154     [DOWNTN      230.00]    -0.7355E-05    -0.2433E-05
  1  0.41E-01    203     [EAST230     230.00]    -0.1160E-05     0.3923E-05
  1  0.14        154     [DOWNTN      230.00]     0.2721E-05     0.1386E-04
  1  0.12        205     [SUB230      230.00]     0.7924E-05     0.9522E-05
  1  0.82E-01    205     [SUB230      230.00]     0.6185E-05     0.5360E-05
  1  0.14        154     [DOWNTN      230.00]     0.9903E-05     0.9906E-05
  1  0.44E-01    154     [DOWNTN      230.00]    -0.2007E-05    -0.3914E-05
  1  0.14        205     [SUB230      230.00]     0.1309E-05    -0.1418E-04
  1  0.66E-01    203     [EAST230     230.00]    -0.5783E-05    -0.3122E-05
  1  0.13        205     [SUB230      230.00]    -0.1141E-04    -0.6155E-05
  1  0.38E-01    203     [EAST230     230.00]    -0.2964E-05     0.2330E-05
  1  0.16        205     [SUB230      230.00]    -0.5738E-05     0.1442E-04
  1  0.12        205     [SUB230      230.00]     0.1056E-04     0.5535E-05
  1  0.15        205     [SUB230      230.00]     0.9886E-05     0.1112E-04
  1  0.57E-01    205     [SUB230      230.00]     0.3030E-05     0.4809E-05
  1  0.66E-01    205     [SUB230      230.00]     0.5239E-05     0.4076E-05
  1  0.53E-01    154     [DOWNTN      230.00]     0.5282E-05     0.1826E-06
  1  0.93E-01    205     [SUB230      230.00]     0.5385E-05    -0.7567E-05
  1  0.10        205     [SUB230      230.00]    -0.9571E-05    -0.3501E-05
  1  0.18        154     [DOWNTN      230.00]    -0.1452E-04    -0.1005E-04
  1  0.51E-01    154     [DOWNTN      230.00]     0.4283E-05     0.2856E-05
  1  0.12        205     [SUB230      230.00]    -0.1767E-05     0.1226E-04
  1  0.90E-01    203     [EAST230     230.00]     0.2101E-05     0.8779E-05
  1  0.12        203     [EAST230     230.00]     0.8093E-05     0.8382E-05
  1  0.68E-01    205     [SUB230      230.00]     0.5307E-05     0.4315E-05
  1  0.72E-01    205     [SUB230      230.00]     0.6021E-05     0.3892E-05
  1  0.38E-01    154     [DOWNTN      230.00]     0.3663E-05     0.1017E-05
  1  0.63E-01    205     [SUB230      230.00]     0.2815E-05    -0.5655E-05
  1  0.11        154     [DOWNTN      230.00]    -0.3507E-05    -0.9946E-05
  1  0.12        154     [DOWNTN      230.00]    -0.1216E-04    -0.6199E-06
  1  0.69E-01    203     [EAST230     230.00]    -0.6887E-05     0.6745E-07
  1  0.66E-01    154     [DOWNTN      230.00]    -0.4417E-05     0.4859E-05
  1  0.12        154     [DOWNTN      230.00]     0.2769E-06     0.1208E-04
  1  0.12        154     [DOWNTN      230.00]     0.1129E-04     0.3987E-05
  1  0.92E-01    205     [SUB230      230.00]     0.5740E-05     0.7232E-05
  1  0.11        205     [SUB230      230.00]     0.5312E-05     0.9153E-05
  1  0.20E-01   3011     [MINE_G      13.800]     0.7253E-06     0.1847E-05
  1  0.76E-01    205     [SUB230      230.00]     0.6396E-05    -0.4135E-05
  1  0.10        205     [SUB230      230.00]    -0.1838E-05    -0.9885E-05
  1  0.12        154     [DOWNTN      230.00]    -0.1156E-04    -0.1231E-05
  1  0.13        205     [SUB230      230.00]    -0.1184E-04    -0.5249E-05
  1  0.32E-01    205     [SUB230      230.00]     0.1699E-05     0.2670E-05
  1  0.15        205     [SUB230      230.00]    -0.1382E-06     0.1511E-04
  1  0.82E-01    203     [EAST230     230.00]     0.4885E-05     0.6561E-05
  1  0.15        205     [SUB230      230.00]     0.9458E-05     0.1143E-04
  1  0.24E-01    205     [SUB230      230.00]     0.1883E-05    -0.1510E-05
  1  0.10        205     [SUB230      230.00]     0.8342E-05    -0.4918E-05
  1  0.87E-01    205     [SUB230      230.00]    -0.4169E-05    -0.7635E-05
  1  0.13        154     [DOWNTN      230.00]    -0.1176E-04    -0.6346E-05
  1  0.66E-01    203     [EAST230     230.00]    -0.6361E-05    -0.1569E-05
  1  0.86E-01    154     [DOWNTN      230.00]    -0.8541E-05    -0.9914E-06
  1  0.58E-01    203     [EAST230     230.00]    -0.1031E-05     0.5659E-05
  1  0.16        205     [SUB230      230.00]     0.2848E-05     0.1533E-04
  1  0.10        205     [SUB230      230.00]     0.9194E-05     0.2966E-05
  1  0.16        205     [SUB230      230.00]     0.1096E-04     0.1196E-04
  1  0.27E-01   3011     [MINE_G      13.800]    -0.1390E-06     0.2682E-05
  1  0.32E-01    154     [DOWNTN      230.00]     0.3159E-05    -0.4285E-06
  1  0.10        205     [SUB230      230.00]     0.4613E-05    -0.9025E-05
  1  0.84E-01    205     [SUB230      230.00]    -0.7551E-05    -0.3752E-05
  1  0.17        154     [DOWNTN      230.00]    -0.1368E-04    -0.9528E-05
  1  0.45E-01    154     [DOWNTN      230.00]     0.2455E-05     0.3740E-05
  1  0.14        205     [SUB230      230.00]    -0.3912E-05     0.1336E-04
...